.MODEL 1N4001 D IS=29.5E-9 RS=73.5E-3 N=1.96 CJO=34.6P VJ=0.627
+M=0.461 BV=60 IBV=10U
